-------------------------------------------------------
          Amber 22 SANDER                              2022
          -------------------------------------------------------

  [-O]verwriting output

File Assignments:

 Here is the input file:

Production
 &cntrl
  imin=0,
  ntx=5,
  irest=1,
  nstlim=100000,
  dt=0.002,
  ntf=2,
  ntc=2,
  temp0=300.0,
  ntpr=100,
  ntwx=100,
  cut=8.0,
  ntb=2,
  ntp=1,
  ntt=3,
  barostat=1,
  gamma_ln=2.0,
  ig=-1,
 /

--------------------------------------------------------------------------------
   1.  RESOURCE   USE:
--------------------------------------------------------------------------------

 getting box info from netcdf restart file
 NATOM  =    2818 NTYPES =      10 NBONH =    2109 MBONA  =     708
 NTHETH =      25 MTHETA =      11 NPHIH =      43 MPHIA  =      24
 NHPARM =       0 NPARM  =       0 NNB   =    4992 NRES   =     702
 NBONA  =     708 NTHETA =      11 NPHIA =      24 NUMBND =      14
 NUMANG =      21 NPTRA  =      14 NATYP =      11 NPHB   =       0
 IFBOX  =       2 NMXRS  =      10 IFCAP =       0 NEXTRA =     699
 NCOPY  =       0

     BOX TYPE: TRUNCATED OCTAHEDRON
Note: ig = -1. Setting random seed to   666620 based on wallclock time in microseconds.

--------------------------------------------------------------------------------
   2.  CONTROL  DATA  FOR  THE  RUN
--------------------------------------------------------------------------------

ACE

General flags:
     imin    =       0, nmropt  =       0

Nature and format of input:
     ntx     =       5, irest   =       1, ntrx    =       1

Nature and format of output:
     ntxo    =       2, ntpr    =     100, ntrx    =       1, ntwr    =  100000
     iwrap   =       0, ntwx    =     100, ntwv    =       0, ntwe    =       0
     ioutfm  =       1, ntwprt  =       0, idecomp =       0, rbornstat=      0

Potential function:
     ntf     =       2, ntb     =       2, igb     =       0, nsnb    =      25
     ipol    =       0, gbsa    =       0, iesp    =       0
     dielc   =   1.00000, cut     =   8.00000, intdiel =   1.00000

Frozen or restrained atoms:
     ibelly  =       0, ntr     =       0

Molecular dynamics:
     nstlim  =    100000, nscm    =      1000, nrespa  =         1
     t       =   0.00000, dt      =   0.00200, vlimit  =  20.00000

Langevin dynamics temperature regulation:
     ig      =  666620
     temp0   = 300.00000, tempi   =   0.00000, gamma_ln=   2.00000

Pressure regulation:
     ntp     =       1
     pres0   =   1.00000, comp    =  44.60000, taup    =   1.00000

SHAKE:
     ntc     =       2, jfastw  =       0
     tol     =   0.00001

Extra-points options:
     frameon =       1, chngmask=       1

Ewald parameters:
     verbose =       0, ew_type =       0, nbflag  =       1, use_pme =       1
     vdwmeth =       1, eedmeth =       1, netfrc  =       1
     Box X =   32.168   Box Y =   32.168   Box Z =   32.168
     Alpha =  109.471   Beta  =  109.471   Gamma =  109.471
     NFFT1 =   32       NFFT2 =   32       NFFT3 =   32
     Cutoff=    8.000   Tol   =0.100E-04
     Ewald Coefficient =  0.34864
     Interpolation order =    4

--------------------------------------------------------------------------------
   3.  ATOMIC COORDINATES AND VELOCITIES
--------------------------------------------------------------------------------

ACE
 begin time read from input coords =    20.000 ps

 Number of triangulated 3-point waters found:      699

     Sum of charges from parm topology file =   0.00000384
     Forcing neutrality...

--------------------------------------------------------------------------------
   4.  RESULTS
 NSTEP =      100   TIME(PS) =      20.200  TEMP(K) =   296.16  PRESS = -2280.8
 Etot   =     -7280.1361  EKtot   =      1250.0173  EPtot      =     -8530.1534
 BOND   =         3.6198  ANGLE   =         5.4542  DIHED      =         5.1966
 1-4 NB =         4.7117  1-4 EEL =        46.8193  VDWAALS    =      1246.7029
 EELEC  =     -9842.2258  EHBOND  =         0.0000  RESTRAINT  =         0.0000
 EKCMT  =       633.6497  VIRIAL  =      1868.8644  VOLUME     =     25083.3672
 CMAP   =        -0.4321
                                                    Density    =         0.8432
 Ewald error estimate:   0.1518E-04
 ------------------------------------------------------------------------------

      A V E R A G E S   O V E R  100000 S T E P S

 NSTEP =   100000   TIME(PS) =     220.000  TEMP(K) =   299.42  PRESS =   -20.6
 Etot   =     -7341.6715  EKtot   =      1263.7875  EPtot      =     -8605.4590
 BOND   =         3.2162  ANGLE   =         9.1697  DIHED      =         4.7541
 1-4 NB =         3.2350  1-4 EEL =        46.2122  VDWAALS    =      1244.2937
 EELEC  =     -9916.7367  EHBOND  =         0.0000  RESTRAINT  =         0.0000
 EKCMT  =       627.6808  VIRIAL  =       638.0960  VOLUME     =     21249.1529
 CMAP   =         0.3969
                                                    Density    =         0.9956
 Ewald error estimate:   0.3880E-03
 ------------------------------------------------------------------------------

      R M S  F L U C T U A T I O N S

 NSTEP =   100000   TIME(PS) =     220.000  TEMP(K) =     6.48  PRESS =   407.2
 Etot   =        50.1992  EKtot   =        27.3418  EPtot      =        41.3929
 BOND   =         1.4848  ANGLE   =         2.3820  DIHED      =         1.1401
 1-4 NB =         0.7732  1-4 EEL =         2.1755  VDWAALS    =        44.3057
 EELEC  =        70.4558  EHBOND  =         0.0000  RESTRAINT  =         0.0000
 EKCMT  =        19.1726  VIRIAL  =       191.3417  VOLUME     =       355.4019
 CMAP   =         0.6206
                                                    Density    =         0.0150
 Ewald error estimate:   0.2901E-03
 ------------------------------------------------------------------------------
